Version 4
SymbolType CELL
CIRCLE Normal 312 -448 296 -448
CIRCLE Normal 152 336 136 336
CIRCLE Normal 216 336 200 336
CIRCLE Normal 280 -224 264 -224
CIRCLE Normal 280 -448 264 -448
CIRCLE Normal 216 -448 200 -448
CIRCLE Normal 280 336 264 336
CIRCLE Normal 312 336 296 336
CIRCLE Normal 280 -240 264 -240
CIRCLE Normal 436 131 427 131
LINE Normal 430 -240 417 -232
LINE Normal 430 -240 417 -232
LINE Normal 417 -232 417 -248
LINE Normal 430 -240 417 -248
CIRCLE Normal 216 -288 200 -288
LINE Normal 145 -304 158 -296
LINE Normal 145 -304 158 -296
LINE Normal 158 -296 158 -312
LINE Normal 145 -304 158 -312
LINE Normal 240 176 252 184
LINE Normal 240 176 252 184
LINE Normal 252 184 252 168
LINE Normal 240 176 252 168
LINE Normal 176 176 163 184
LINE Normal 176 176 163 184
LINE Normal 163 184 163 168
LINE Normal 176 176 163 168
LINE Normal 270 -304 257 -296
LINE Normal 270 -304 257 -296
LINE Normal 257 -296 257 -312
LINE Normal 270 -304 257 -312
CIRCLE Normal 280 96 264 96
CIRCLE Normal 152 96 136 96
CIRCLE Normal 216 160 200 160
CIRCLE Normal 360 336 344 336
CIRCLE Normal 440 -64 424 -64
CIRCLE Normal 152 -448 136 -448
LINE Normal 432 -64 432 -96
LINE Normal 240 176 272 176
LINE Normal 144 -256 144 -192
LINE Normal 208 -480 208 -480
LINE Normal 208 368 208 352
LINE Normal 112 -448 432 -448
LINE Normal 432 -448 320 -448
LINE Normal 432 -96 432 -116
LINE Normal 432 -116 416 -120
LINE Normal 416 -120 448 -130
LINE Normal 448 -130 416 -140
LINE Normal 416 -140 448 -149
LINE Normal 448 -149 416 -159
LINE Normal 416 -159 448 -168
LINE Normal 448 -168 432 -173
LINE Normal 432 -173 432 -192
LINE Normal 272 -240 272 -224
LINE Normal 272 -224 336 -224
LINE Normal 240 152 272 152
LINE Normal 272 152 272 128
LINE Normal 272 176 304 176
LINE Normal 304 176 304 336
LINE Normal 272 240 272 224
LINE Normal 272 336 272 320
LINE Normal 176 -280 144 -280
LINE Normal 144 -280 144 -256
LINE Normal 240 -328 272 -328
LINE Normal 272 -328 272 -352
LINE Normal 384 -224 336 -224
LINE Normal 432 -272 432 -256
LINE Normal 432 -64 432 112
LINE Normal 448 131 416 131
LINE Normal 432 131 432 176
LINE Normal 432 -64 432 -29
LINE Normal 240 -280 272 -280
LINE Normal 272 -280 272 -256
LINE Normal 448 112 416 112
LINE Normal 432 160 432 336
LINE Normal 304 -304 304 -448
LINE Normal 176 -280 144 -280
LINE Normal 144 -280 144 -256
LINE Normal 176 -328 144 -328
LINE Normal 144 -328 144 -352
LINE Normal 112 336 272 336
LINE Normal 144 224 144 336
LINE Normal 272 112 272 128
LINE Normal 208 -448 208 -480
LINE Normal 432 -240 432 -336
LINE Normal 432 -336 432 -356
LINE Normal 432 -356 416 -360
LINE Normal 416 -360 448 -370
LINE Normal 448 -370 416 -380
LINE Normal 416 -380 448 -389
LINE Normal 448 -389 416 -399
LINE Normal 416 -399 448 -408
LINE Normal 448 -408 432 -413
LINE Normal 432 -413 432 -432
LINE Normal 208 -288 208 -240
LINE Normal 208 -240 272 -240
LINE Normal 400 -264 432 -264
LINE Normal 432 -264 432 -272
LINE Normal 208 -288 192 -288
LINE Normal 176 -304 112 -304
LINE Normal 176 -336 176 -272
LINE Normal 176 200 144 200
LINE Normal 144 200 144 224
LINE Normal 176 208 176 144
LINE Normal 144 -224 144 144
LINE Normal 208 160 184 160
LINE Normal 240 200 272 200
LINE Normal 272 200 272 224
LINE Normal 176 176 112 176
LINE Normal 176 152 144 152
LINE Normal 144 152 144 128
LINE Normal 240 -280 272 -280
LINE Normal 272 -280 272 -240
LINE Normal 352 96 272 96
LINE Normal 272 336 432 336
LINE Normal 240 -328 272 -328
LINE Normal 272 -328 272 -352
LINE Normal 400 -216 432 -216
LINE Normal 432 -216 432 -192
LINE Normal 240 208 240 144
LINE Normal 400 -264 432 -264
LINE Normal 432 -264 432 -272
LINE Normal 272 112 272 -224
LINE Normal 272 -224 272 -224
LINE Normal 432 -64 496 -64
LINE Normal 272 -336 272 -448
LINE Normal 432 -432 432 -448
LINE Normal 144 -432 144 -448
LINE Normal 368 -224 384 -224
LINE Normal 400 -216 432 -216
LINE Normal 432 -216 432 -192
LINE Normal 400 -240 432 -240
LINE Normal 208 336 208 352
LINE Normal 208 160 208 96
LINE Normal 208 96 144 96
LINE Normal 208 -288 224 -288
LINE Normal 144 -336 144 -356
LINE Normal 144 -356 128 -360
LINE Normal 128 -360 160 -370
LINE Normal 160 -370 128 -380
LINE Normal 128 -380 160 -389
LINE Normal 160 -389 128 -399
LINE Normal 128 -399 160 -408
LINE Normal 160 -408 144 -413
LINE Normal 144 -413 144 -432
LINE Normal 352 272 352 252
LINE Normal 352 252 336 248
LINE Normal 336 248 368 238
LINE Normal 368 238 336 228
LINE Normal 336 228 368 219
LINE Normal 368 219 336 209
LINE Normal 336 209 368 200
LINE Normal 368 200 352 195
LINE Normal 352 195 352 176
LINE Normal 208 160 232 160
LINE Normal 304 176 304 208
LINE Normal 352 256 352 336
LINE Normal 144 112 144 128
LINE Normal 240 -304 304 -304
LINE Normal 272 320 272 300
LINE Normal 272 300 256 296
LINE Normal 256 296 288 286
LINE Normal 288 286 256 276
LINE Normal 256 276 288 267
LINE Normal 288 267 256 257
LINE Normal 256 257 288 248
LINE Normal 288 248 272 243
LINE Normal 272 243 272 224
LINE Normal 240 -336 240 -272
LINE Normal 112 -304 112 -448
LINE Normal 352 96 352 176
LINE Normal 112 176 112 336
LINE Normal 400 -272 400 -208
SYMATTR Value &462STUP_00_00
PIN 208 -480 NONE 0
PINATTR PinName [:name, :VBB, [:display, [:figureGroupOverride, :pin, [:textHeight, 10]], [:justify, :CENTERLEFT], [:orientation, :R0], [:origin, [:pt, 143, 299]]]]
PINATTR SpiceOrder 1
PIN 208 368 NONE 0
PINATTR PinName [:name, :GND, [:display, [:figureGroupOverride, :pin, [:textHeight, 10]], [:justify, :CENTERRIGHT], [:orientation, :R0], [:origin, [:pt, 171, -230]]]]
PINATTR SpiceOrder 2
PIN 496 -64 NONE 0
PINATTR PinName [:name, :VREG, [:display, [:figureGroupOverride, :pin, [:textHeight, 10]], [:justify, :CENTERRIGHT], [:orientation, :R0], [:origin, [:pt, 316, 56]]]]
PINATTR SpiceOrder 3
