Version 4
SHEET 1 7088 2000
FLAG 640 -1024 BG
IOPIN 640 -1024 inout
FLAG 640 -1088 D
IOPIN 640 -1088 inout
FLAG 640 -1152 G
IOPIN 640 -1152 inout
FLAG 640 -1216 S
IOPIN 640 -1216 inout
